start_year:              2020
start_month:             08
start_day:               25
start_hour:              12
start_minute:            0
start_second:            0
nhours_fcst:             126
dt_atmos:                72
calendar:                'julian'
restart_interval:        3 6 9
output_1st_tstep_rst:    .false.

quilting:                .true.
write_groups:            2
write_tasks_per_group:   8
num_files:               2
filename_base:           'atm' 'sfc'
output_file:             'netcdf' 'netcdf'
write_dopost:            .false.
output_history:          .true.
ichunk2d:                -1
jchunk2d:                -1
ichunk3d:                -1
jchunk3d:                -1
kchunk3d:                -1
ideflate:                1
nbits:                   0

output_grid:             regional_latlon     # gaussian_grid, global_latlon, regional_latlon, rotated_latlon, lambert_conformal, cubed_sphere_grid
imo:                     1681             # number of grid points along longitude/latitude direction
jmo:                     1361             # needed for gaussian_grid or global_latlon
cen_lon:                 -89.6         # central longitude/latitude (degrees)
cen_lat:                 23.3         # needed for rotated_latlon, lambert_conformal
lon1:                    -140.000000            # longitude/latitude of lower-left corner
lat1:                    -17.500000            # needed for regional_latlon, rotated_latlon, lambert_conformal
lon2:                    -39.200000            # longitude/latitude of upper-right corner
lat2:                    64.100000            # needed for regional_latlon, rotated_latlon
dlon:                    0.06            # grid spacing in longitude/latitude direction (degrees)
dlat:                    0.06            # needed for regional_latlon, rotated_latlon
stdlat1:                          # latitude of first/second standard parallel (degrees)
stdlat2:                          # needed for lambert_conformal
nx:                                    # number of grid cells along x/y-axis
ny:                                    # needed for lambert_conformal
dx:                                    # grid cell size in x/y direction (meters)
dy:                                    # needed for lambert_conformal

<output_grid_02>
output_grid:             regional_latlon_moving
imo:                     1001
jmo:                     801
cen_lon:                 -86.3
cen_lat:                 23.3
lon1:                    -96.300000
lat1:                    15.300000
lon2:                    -76.300000
lat2:                    31.300000
dlon:                    0.02
dlat:                    0.02
stdlat1:                 
stdlat2:                 
nx:                      
ny:                      
dx:                      
dy:                      
</output_grid_02>

nfhout:                  3          # Output frequency in hours after forecast hour nfhmax_hf
nfhmax_hf:               -1       # Number of forecast hours until output frequency nfhout takes affect
nfhout_hf:               3       # Output frequency in hours until forecast hour nfhmax_hf
nsout:                   -1           # Output frequency in time steps (positive values override nfhout and nfhout_hf)
output_fh:               -1       # Output forecast hours controlled by output_fh (see notes below)
# a) An array of output_fh means to output history files at those forecast time (e.g., "output_fh: 0 1 2 3 12 24 48")
#    If the first elelment is zero, it means the first time step output
# b) If there are two elements in output_fh and the second one is -1, then the first element is output frequency. e.g.
#    For example, "output_fh: 6 -1" will output the history file every 6 hours.
